
#======================================================================
# CRYSTAL DATA
#----------------------------------------------------------------------
data_VESTA_phase_1

_chemical_name_common                  'Sr1 Ti1 O3'
_cell_length_a                         31.545206
_cell_length_b                         3.912701
_cell_length_c                         31.545206
_cell_angle_alpha                      90.000000
_cell_angle_beta                       90.000000
_cell_angle_gamma                      90.000000
_cell_volume                           3893.528759
_space_group_name_H-M_alt              'P 1'
_space_group_IT_number                 1

loop_
_space_group_symop_operation_xyz
   'x, y, z'

loop_
   _atom_site_label
   _atom_site_occupancy
   _atom_site_fract_x
   _atom_site_fract_y
   _atom_site_fract_z
   _atom_site_adp_type
   _atom_site_U_iso_or_equiv
   _atom_site_type_symbol
   Sr1        1.0     0.000000     0.000000     0.000000    Uiso  ? Sr
   Sr2        1.0     0.015385     0.000000     0.876923    Uiso  ? Sr
   Sr3        1.0     0.138462     0.000000     0.892308    Uiso  ? Sr
   Sr4        1.0     0.261538     0.000000     0.907692    Uiso  ? Sr
   Sr5        1.0     0.384615     0.000000     0.923077    Uiso  ? Sr
   Sr6        1.0     0.507692     0.000000     0.938462    Uiso  ? Sr
   Sr7        1.0     0.630769     0.000000     0.953846    Uiso  ? Sr
   Sr8        1.0     0.753846     0.000000     0.969231    Uiso  ? Sr
   Sr9        1.0     0.876923     0.000000     0.984615    Uiso  ? Sr
   Sr10       1.0     0.123077     0.000000     0.015385    Uiso  ? Sr
   Sr11       1.0     0.246154     0.000000     0.030769    Uiso  ? Sr
   Sr12       1.0     0.369231     0.000000     0.046154    Uiso  ? Sr
   Sr13       1.0     0.492308     0.000000     0.061539    Uiso  ? Sr
   Sr14       1.0     0.615385     0.000000     0.076923    Uiso  ? Sr
   Sr15       1.0     0.738462     0.000000     0.092308    Uiso  ? Sr
   Sr16       1.0     0.861538     0.000000     0.107692    Uiso  ? Sr
   Sr17       1.0     0.984615     0.000000     0.123077    Uiso  ? Sr
   Sr18       1.0     0.107692     0.000000     0.138462    Uiso  ? Sr
   Sr19       1.0     0.230769     0.000000     0.153846    Uiso  ? Sr
   Sr20       1.0     0.353846     0.000000     0.169231    Uiso  ? Sr
   Sr21       1.0     0.476923     0.000000     0.184615    Uiso  ? Sr
   Sr22       1.0     0.600000     0.000000     0.200000    Uiso  ? Sr
   Sr23       1.0     0.723077     0.000000     0.215385    Uiso  ? Sr
   Sr24       1.0     0.846154     0.000000     0.230769    Uiso  ? Sr
   Sr25       1.0     0.969231     0.000000     0.246154    Uiso  ? Sr
   Sr26       1.0     0.092308     0.000000     0.261538    Uiso  ? Sr
   Sr27       1.0     0.215385     0.000000     0.276923    Uiso  ? Sr
   Sr28       1.0     0.338462     0.000000     0.292308    Uiso  ? Sr
   Sr29       1.0     0.461538     0.000000     0.307692    Uiso  ? Sr
   Sr30       1.0     0.584615     0.000000     0.323077    Uiso  ? Sr
   Sr31       1.0     0.707692     0.000000     0.338462    Uiso  ? Sr
   Sr32       1.0     0.830769     0.000000     0.353846    Uiso  ? Sr
   Sr33       1.0     0.953846     0.000000     0.369231    Uiso  ? Sr
   Sr34       1.0     0.076923     0.000000     0.384615    Uiso  ? Sr
   Sr35       1.0     0.200000     0.000000     0.400000    Uiso  ? Sr
   Sr36       1.0     0.323077     0.000000     0.415385    Uiso  ? Sr
   Sr37       1.0     0.446154     0.000000     0.430769    Uiso  ? Sr
   Sr38       1.0     0.569231     0.000000     0.446154    Uiso  ? Sr
   Sr39       1.0     0.692308     0.000000     0.461538    Uiso  ? Sr
   Sr40       1.0     0.815385     0.000000     0.476923    Uiso  ? Sr
   Sr41       1.0     0.938462     0.000000     0.492308    Uiso  ? Sr
   Sr42       1.0     0.061539     0.000000     0.507692    Uiso  ? Sr
   Sr43       1.0     0.184615     0.000000     0.523077    Uiso  ? Sr
   Sr44       1.0     0.307692     0.000000     0.538462    Uiso  ? Sr
   Sr45       1.0     0.430769     0.000000     0.553846    Uiso  ? Sr
   Sr46       1.0     0.553846     0.000000     0.569231    Uiso  ? Sr
   Sr47       1.0     0.676923     0.000000     0.584615    Uiso  ? Sr
   Sr48       1.0     0.800000     0.000000     0.600000    Uiso  ? Sr
   Sr49       1.0     0.923077     0.000000     0.615385    Uiso  ? Sr
   Sr50       1.0     0.046154     0.000000     0.630769    Uiso  ? Sr
   Sr51       1.0     0.169231     0.000000     0.646154    Uiso  ? Sr
   Sr52       1.0     0.292308     0.000000     0.661538    Uiso  ? Sr
   Sr53       1.0     0.415385     0.000000     0.676923    Uiso  ? Sr
   Sr54       1.0     0.538462     0.000000     0.692308    Uiso  ? Sr
   Sr55       1.0     0.661538     0.000000     0.707692    Uiso  ? Sr
   Sr56       1.0     0.784615     0.000000     0.723077    Uiso  ? Sr
   Sr57       1.0     0.907692     0.000000     0.738462    Uiso  ? Sr
   Sr58       1.0     0.030769     0.000000     0.753846    Uiso  ? Sr
   Sr59       1.0     0.153846     0.000000     0.769231    Uiso  ? Sr
   Sr60       1.0     0.276923     0.000000     0.784615    Uiso  ? Sr
   Sr61       1.0     0.400000     0.000000     0.800000    Uiso  ? Sr
   Sr62       1.0     0.523077     0.000000     0.815385    Uiso  ? Sr
   Sr63       1.0     0.646154     0.000000     0.830769    Uiso  ? Sr
   Sr64       1.0     0.769231     0.000000     0.846154    Uiso  ? Sr
   Sr65       1.0     0.892308     0.000000     0.861538    Uiso  ? Sr
   Ti1        1.0     0.053846     0.500000     0.069231    Uiso  ? Ti
   Ti2        1.0     0.069231     0.500000     0.946154    Uiso  ? Ti
   Ti3        1.0     0.192308     0.500000     0.961539    Uiso  ? Ti
   Ti4        1.0     0.315384     0.500000     0.976923    Uiso  ? Ti
   Ti5        1.0     0.438461     0.500000     0.992308    Uiso  ? Ti
   Ti6        1.0     0.561538     0.500000     0.007693    Uiso  ? Ti
   Ti7        1.0     0.684615     0.500000     0.023077    Uiso  ? Ti
   Ti8        1.0     0.807692     0.500000     0.038462    Uiso  ? Ti
   Ti9        1.0     0.930769     0.500000     0.053846    Uiso  ? Ti
   Ti10       1.0     0.176923     0.500000     0.084616    Uiso  ? Ti
   Ti11       1.0     0.300000     0.500000     0.100000    Uiso  ? Ti
   Ti12       1.0     0.423077     0.500000     0.115385    Uiso  ? Ti
   Ti13       1.0     0.546154     0.500000     0.130770    Uiso  ? Ti
   Ti14       1.0     0.669231     0.500000     0.146154    Uiso  ? Ti
   Ti15       1.0     0.792308     0.500000     0.161539    Uiso  ? Ti
   Ti16       1.0     0.915384     0.500000     0.176923    Uiso  ? Ti
   Ti17       1.0     0.038461     0.500000     0.192308    Uiso  ? Ti
   Ti18       1.0     0.161538     0.500000     0.207693    Uiso  ? Ti
   Ti19       1.0     0.284615     0.500000     0.223077    Uiso  ? Ti
   Ti20       1.0     0.407692     0.500000     0.238462    Uiso  ? Ti
   Ti21       1.0     0.530769     0.500000     0.253846    Uiso  ? Ti
   Ti22       1.0     0.653846     0.500000     0.269231    Uiso  ? Ti
   Ti23       1.0     0.776923     0.500000     0.284616    Uiso  ? Ti
   Ti24       1.0     0.900000     0.500000     0.300000    Uiso  ? Ti
   Ti25       1.0     0.023077     0.500000     0.315385    Uiso  ? Ti
   Ti26       1.0     0.146154     0.500000     0.330769    Uiso  ? Ti
   Ti27       1.0     0.269231     0.500000     0.346154    Uiso  ? Ti
   Ti28       1.0     0.392308     0.500000     0.361539    Uiso  ? Ti
   Ti29       1.0     0.515384     0.500000     0.376923    Uiso  ? Ti
   Ti30       1.0     0.638461     0.500000     0.392308    Uiso  ? Ti
   Ti31       1.0     0.761538     0.500000     0.407693    Uiso  ? Ti
   Ti32       1.0     0.884615     0.500000     0.423077    Uiso  ? Ti
   Ti33       1.0     0.007692     0.500000     0.438462    Uiso  ? Ti
   Ti34       1.0     0.130769     0.500000     0.453846    Uiso  ? Ti
   Ti35       1.0     0.253846     0.500000     0.469231    Uiso  ? Ti
   Ti36       1.0     0.376923     0.500000     0.484616    Uiso  ? Ti
   Ti37       1.0     0.500000     0.500000     0.500000    Uiso  ? Ti
   Ti38       1.0     0.623077     0.500000     0.515385    Uiso  ? Ti
   Ti39       1.0     0.746154     0.500000     0.530769    Uiso  ? Ti
   Ti40       1.0     0.869231     0.500000     0.546154    Uiso  ? Ti
   Ti41       1.0     0.992308     0.500000     0.561539    Uiso  ? Ti
   Ti42       1.0     0.115385     0.500000     0.576923    Uiso  ? Ti
   Ti43       1.0     0.238461     0.500000     0.592308    Uiso  ? Ti
   Ti44       1.0     0.361538     0.500000     0.607693    Uiso  ? Ti
   Ti45       1.0     0.484615     0.500000     0.623077    Uiso  ? Ti
   Ti46       1.0     0.607692     0.500000     0.638462    Uiso  ? Ti
   Ti47       1.0     0.730769     0.500000     0.653846    Uiso  ? Ti
   Ti48       1.0     0.853846     0.500000     0.669231    Uiso  ? Ti
   Ti49       1.0     0.976923     0.500000     0.684616    Uiso  ? Ti
   Ti50       1.0     0.100000     0.500000     0.700000    Uiso  ? Ti
   Ti51       1.0     0.223077     0.500000     0.715385    Uiso  ? Ti
   Ti52       1.0     0.346154     0.500000     0.730769    Uiso  ? Ti
   Ti53       1.0     0.469231     0.500000     0.746154    Uiso  ? Ti
   Ti54       1.0     0.592308     0.500000     0.761539    Uiso  ? Ti
   Ti55       1.0     0.715384     0.500000     0.776923    Uiso  ? Ti
   Ti56       1.0     0.838461     0.500000     0.792308    Uiso  ? Ti
   Ti57       1.0     0.961538     0.500000     0.807693    Uiso  ? Ti
   Ti58       1.0     0.084615     0.500000     0.823077    Uiso  ? Ti
   Ti59       1.0     0.207692     0.500000     0.838462    Uiso  ? Ti
   Ti60       1.0     0.330769     0.500000     0.853846    Uiso  ? Ti
   Ti61       1.0     0.453846     0.500000     0.869231    Uiso  ? Ti
   Ti62       1.0     0.576923     0.500000     0.884616    Uiso  ? Ti
   Ti63       1.0     0.700000     0.500000     0.900000    Uiso  ? Ti
   Ti64       1.0     0.823077     0.500000     0.915385    Uiso  ? Ti
   Ti65       1.0     0.946154     0.500000     0.930769    Uiso  ? Ti
   O1         1.0     0.053846     0.000000     0.069231    Uiso  ? O
   O2         1.0     0.069231     0.000000     0.946154    Uiso  ? O
   O3         1.0     0.192308     0.000000     0.961539    Uiso  ? O
   O4         1.0     0.315384     0.000000     0.976923    Uiso  ? O
   O5         1.0     0.438461     0.000000     0.992308    Uiso  ? O
   O6         1.0     0.561538     0.000000     0.007693    Uiso  ? O
   O7         1.0     0.684615     0.000000     0.023077    Uiso  ? O
   O8         1.0     0.807692     0.000000     0.038462    Uiso  ? O
   O9         1.0     0.930769     0.000000     0.053846    Uiso  ? O
   O10        1.0     0.176923     0.000000     0.084616    Uiso  ? O
   O11        1.0     0.300000     0.000000     0.100000    Uiso  ? O
   O12        1.0     0.423077     0.000000     0.115385    Uiso  ? O
   O13        1.0     0.546154     0.000000     0.130770    Uiso  ? O
   O14        1.0     0.669231     0.000000     0.146154    Uiso  ? O
   O15        1.0     0.792308     0.000000     0.161539    Uiso  ? O
   O16        1.0     0.915384     0.000000     0.176923    Uiso  ? O
   O17        1.0     0.038461     0.000000     0.192308    Uiso  ? O
   O18        1.0     0.161538     0.000000     0.207693    Uiso  ? O
   O19        1.0     0.284615     0.000000     0.223077    Uiso  ? O
   O20        1.0     0.407692     0.000000     0.238462    Uiso  ? O
   O21        1.0     0.530769     0.000000     0.253846    Uiso  ? O
   O22        1.0     0.653846     0.000000     0.269231    Uiso  ? O
   O23        1.0     0.776923     0.000000     0.284616    Uiso  ? O
   O24        1.0     0.900000     0.000000     0.300000    Uiso  ? O
   O25        1.0     0.023077     0.000000     0.315385    Uiso  ? O
   O26        1.0     0.146154     0.000000     0.330769    Uiso  ? O
   O27        1.0     0.269231     0.000000     0.346154    Uiso  ? O
   O28        1.0     0.392308     0.000000     0.361539    Uiso  ? O
   O29        1.0     0.515384     0.000000     0.376923    Uiso  ? O
   O30        1.0     0.638461     0.000000     0.392308    Uiso  ? O
   O31        1.0     0.761538     0.000000     0.407693    Uiso  ? O
   O32        1.0     0.884615     0.000000     0.423077    Uiso  ? O
   O33        1.0     0.007692     0.000000     0.438462    Uiso  ? O
   O34        1.0     0.130769     0.000000     0.453846    Uiso  ? O
   O35        1.0     0.253846     0.000000     0.469231    Uiso  ? O
   O36        1.0     0.376923     0.000000     0.484616    Uiso  ? O
   O37        1.0     0.500000     0.000000     0.500000    Uiso  ? O
   O38        1.0     0.623077     0.000000     0.515385    Uiso  ? O
   O39        1.0     0.746154     0.000000     0.530769    Uiso  ? O
   O40        1.0     0.869231     0.000000     0.546154    Uiso  ? O
   O41        1.0     0.992308     0.000000     0.561539    Uiso  ? O
   O42        1.0     0.115385     0.000000     0.576923    Uiso  ? O
   O43        1.0     0.238461     0.000000     0.592308    Uiso  ? O
   O44        1.0     0.361538     0.000000     0.607693    Uiso  ? O
   O45        1.0     0.484615     0.000000     0.623077    Uiso  ? O
   O46        1.0     0.607692     0.000000     0.638462    Uiso  ? O
   O47        1.0     0.730769     0.000000     0.653846    Uiso  ? O
   O48        1.0     0.853846     0.000000     0.669231    Uiso  ? O
   O49        1.0     0.976923     0.000000     0.684616    Uiso  ? O
   O50        1.0     0.100000     0.000000     0.700000    Uiso  ? O
   O51        1.0     0.223077     0.000000     0.715385    Uiso  ? O
   O52        1.0     0.346154     0.000000     0.730769    Uiso  ? O
   O53        1.0     0.469231     0.000000     0.746154    Uiso  ? O
   O54        1.0     0.592308     0.000000     0.761539    Uiso  ? O
   O55        1.0     0.715384     0.000000     0.776923    Uiso  ? O
   O56        1.0     0.838461     0.000000     0.792308    Uiso  ? O
   O57        1.0     0.961538     0.000000     0.807693    Uiso  ? O
   O58        1.0     0.084615     0.000000     0.823077    Uiso  ? O
   O59        1.0     0.207692     0.000000     0.838462    Uiso  ? O
   O60        1.0     0.330769     0.000000     0.853846    Uiso  ? O
   O61        1.0     0.453846     0.000000     0.869231    Uiso  ? O
   O62        1.0     0.576923     0.000000     0.884616    Uiso  ? O
   O63        1.0     0.700000     0.000000     0.900000    Uiso  ? O
   O64        1.0     0.823077     0.000000     0.915385    Uiso  ? O
   O65        1.0     0.946154     0.000000     0.930769    Uiso  ? O
   O66        1.0     0.992308     0.500000     0.061538    Uiso  ? O
   O67        1.0     0.007693     0.500000     0.938461    Uiso  ? O
   O68        1.0     0.130770     0.500000     0.953846    Uiso  ? O
   O69        1.0     0.253846     0.500000     0.969230    Uiso  ? O
   O70        1.0     0.376923     0.500000     0.984615    Uiso  ? O
   O71        1.0     0.500000     0.500000     0.000000    Uiso  ? O
   O72        1.0     0.623077     0.500000     0.015384    Uiso  ? O
   O73        1.0     0.746154     0.500000     0.030769    Uiso  ? O
   O74        1.0     0.869231     0.500000     0.046153    Uiso  ? O
   O75        1.0     0.115385     0.500000     0.076923    Uiso  ? O
   O76        1.0     0.238462     0.500000     0.092307    Uiso  ? O
   O77        1.0     0.361539     0.500000     0.107692    Uiso  ? O
   O78        1.0     0.484616     0.500000     0.123077    Uiso  ? O
   O79        1.0     0.607693     0.500000     0.138461    Uiso  ? O
   O80        1.0     0.730770     0.500000     0.153846    Uiso  ? O
   O81        1.0     0.853846     0.500000     0.169230    Uiso  ? O
   O82        1.0     0.976923     0.500000     0.184615    Uiso  ? O
   O83        1.0     0.100000     0.500000     0.200000    Uiso  ? O
   O84        1.0     0.223077     0.500000     0.215384    Uiso  ? O
   O85        1.0     0.346154     0.500000     0.230769    Uiso  ? O
   O86        1.0     0.469231     0.500000     0.246153    Uiso  ? O
   O87        1.0     0.592308     0.500000     0.261538    Uiso  ? O
   O88        1.0     0.715385     0.500000     0.276923    Uiso  ? O
   O89        1.0     0.838462     0.500000     0.292307    Uiso  ? O
   O90        1.0     0.961539     0.500000     0.307692    Uiso  ? O
   O91        1.0     0.084616     0.500000     0.323076    Uiso  ? O
   O92        1.0     0.207693     0.500000     0.338461    Uiso  ? O
   O93        1.0     0.330770     0.500000     0.353846    Uiso  ? O
   O94        1.0     0.453846     0.500000     0.369230    Uiso  ? O
   O95        1.0     0.576923     0.500000     0.384615    Uiso  ? O
   O96        1.0     0.700000     0.500000     0.400000    Uiso  ? O
   O97        1.0     0.823077     0.500000     0.415384    Uiso  ? O
   O98        1.0     0.946154     0.500000     0.430769    Uiso  ? O
   O99        1.0     0.069231     0.500000     0.446153    Uiso  ? O
   O100       1.0     0.192308     0.500000     0.461538    Uiso  ? O
   O101       1.0     0.315385     0.500000     0.476923    Uiso  ? O
   O102       1.0     0.438462     0.500000     0.492307    Uiso  ? O
   O103       1.0     0.561539     0.500000     0.507692    Uiso  ? O
   O104       1.0     0.684616     0.500000     0.523076    Uiso  ? O
   O105       1.0     0.807693     0.500000     0.538461    Uiso  ? O
   O106       1.0     0.930770     0.500000     0.553846    Uiso  ? O
   O107       1.0     0.053847     0.500000     0.569230    Uiso  ? O
   O108       1.0     0.176923     0.500000     0.584615    Uiso  ? O
   O109       1.0     0.300000     0.500000     0.600000    Uiso  ? O
   O110       1.0     0.423077     0.500000     0.615384    Uiso  ? O
   O111       1.0     0.546154     0.500000     0.630769    Uiso  ? O
   O112       1.0     0.669231     0.500000     0.646153    Uiso  ? O
   O113       1.0     0.792308     0.500000     0.661538    Uiso  ? O
   O114       1.0     0.915385     0.500000     0.676923    Uiso  ? O
   O115       1.0     0.038462     0.500000     0.692307    Uiso  ? O
   O116       1.0     0.161539     0.500000     0.707692    Uiso  ? O
   O117       1.0     0.284616     0.500000     0.723076    Uiso  ? O
   O118       1.0     0.407693     0.500000     0.738461    Uiso  ? O
   O119       1.0     0.530770     0.500000     0.753846    Uiso  ? O
   O120       1.0     0.653846     0.500000     0.769230    Uiso  ? O
   O121       1.0     0.776923     0.500000     0.784615    Uiso  ? O
   O122       1.0     0.900000     0.500000     0.800000    Uiso  ? O
   O123       1.0     0.023077     0.500000     0.815384    Uiso  ? O
   O124       1.0     0.146154     0.500000     0.830769    Uiso  ? O
   O125       1.0     0.269231     0.500000     0.846153    Uiso  ? O
   O126       1.0     0.392308     0.500000     0.861538    Uiso  ? O
   O127       1.0     0.515385     0.500000     0.876923    Uiso  ? O
   O128       1.0     0.638462     0.500000     0.892307    Uiso  ? O
   O129       1.0     0.761539     0.500000     0.907692    Uiso  ? O
   O130       1.0     0.884616     0.500000     0.923076    Uiso  ? O
   O131       1.0     0.061538     0.500000     0.007692    Uiso  ? O
   O132       1.0     0.076923     0.500000     0.884615    Uiso  ? O
   O133       1.0     0.200000     0.500000     0.900000    Uiso  ? O
   O134       1.0     0.323076     0.500000     0.915384    Uiso  ? O
   O135       1.0     0.446153     0.500000     0.930769    Uiso  ? O
   O136       1.0     0.569230     0.500000     0.946154    Uiso  ? O
   O137       1.0     0.692307     0.500000     0.961538    Uiso  ? O
   O138       1.0     0.815384     0.500000     0.976923    Uiso  ? O
   O139       1.0     0.938461     0.500000     0.992307    Uiso  ? O
   O140       1.0     0.184615     0.500000     0.023077    Uiso  ? O
   O141       1.0     0.307692     0.500000     0.038461    Uiso  ? O
   O142       1.0     0.430769     0.500000     0.053846    Uiso  ? O
   O143       1.0     0.553846     0.500000     0.069231    Uiso  ? O
   O144       1.0     0.676923     0.500000     0.084615    Uiso  ? O
   O145       1.0     0.800000     0.500000     0.100000    Uiso  ? O
   O146       1.0     0.923076     0.500000     0.115384    Uiso  ? O
   O147       1.0     0.046153     0.500000     0.130769    Uiso  ? O
   O148       1.0     0.169230     0.500000     0.146154    Uiso  ? O
   O149       1.0     0.292307     0.500000     0.161538    Uiso  ? O
   O150       1.0     0.415384     0.500000     0.176923    Uiso  ? O
   O151       1.0     0.538461     0.500000     0.192307    Uiso  ? O
   O152       1.0     0.661538     0.500000     0.207692    Uiso  ? O
   O153       1.0     0.784615     0.500000     0.223077    Uiso  ? O
   O154       1.0     0.907692     0.500000     0.238461    Uiso  ? O
   O155       1.0     0.030769     0.500000     0.253846    Uiso  ? O
   O156       1.0     0.153846     0.500000     0.269230    Uiso  ? O
   O157       1.0     0.276923     0.500000     0.284615    Uiso  ? O
   O158       1.0     0.400000     0.500000     0.300000    Uiso  ? O
   O159       1.0     0.523076     0.500000     0.315384    Uiso  ? O
   O160       1.0     0.646153     0.500000     0.330769    Uiso  ? O
   O161       1.0     0.769230     0.500000     0.346154    Uiso  ? O
   O162       1.0     0.892307     0.500000     0.361538    Uiso  ? O
   O163       1.0     0.015384     0.500000     0.376923    Uiso  ? O
   O164       1.0     0.138461     0.500000     0.392307    Uiso  ? O
   O165       1.0     0.261538     0.500000     0.407692    Uiso  ? O
   O166       1.0     0.384615     0.500000     0.423077    Uiso  ? O
   O167       1.0     0.507692     0.500000     0.438461    Uiso  ? O
   O168       1.0     0.630769     0.500000     0.453846    Uiso  ? O
   O169       1.0     0.753846     0.500000     0.469230    Uiso  ? O
   O170       1.0     0.876923     0.500000     0.484615    Uiso  ? O
   O171       1.0     0.000000     0.500000     0.500000    Uiso  ? O
   O172       1.0     0.123077     0.500000     0.515384    Uiso  ? O
   O173       1.0     0.246153     0.500000     0.530769    Uiso  ? O
   O174       1.0     0.369230     0.500000     0.546154    Uiso  ? O
   O175       1.0     0.492307     0.500000     0.561538    Uiso  ? O
   O176       1.0     0.615384     0.500000     0.576923    Uiso  ? O
   O177       1.0     0.738461     0.500000     0.592307    Uiso  ? O
   O178       1.0     0.861538     0.500000     0.607692    Uiso  ? O
   O179       1.0     0.984615     0.500000     0.623077    Uiso  ? O
   O180       1.0     0.107692     0.500000     0.638461    Uiso  ? O
   O181       1.0     0.230769     0.500000     0.653846    Uiso  ? O
   O182       1.0     0.353846     0.500000     0.669230    Uiso  ? O
   O183       1.0     0.476923     0.500000     0.684615    Uiso  ? O
   O184       1.0     0.600000     0.500000     0.700000    Uiso  ? O
   O185       1.0     0.723076     0.500000     0.715384    Uiso  ? O
   O186       1.0     0.846153     0.500000     0.730769    Uiso  ? O
   O187       1.0     0.969230     0.500000     0.746154    Uiso  ? O
   O188       1.0     0.092307     0.500000     0.761538    Uiso  ? O
   O189       1.0     0.215384     0.500000     0.776923    Uiso  ? O
   O190       1.0     0.338461     0.500000     0.792307    Uiso  ? O
   O191       1.0     0.461538     0.500000     0.807692    Uiso  ? O
   O192       1.0     0.584615     0.500000     0.823077    Uiso  ? O
   O193       1.0     0.707692     0.500000     0.838461    Uiso  ? O
   O194       1.0     0.830769     0.500000     0.853846    Uiso  ? O
   O195       1.0     0.953846     0.500000     0.869230    Uiso  ? O
